examples/ieee_cdf/conventions.cdf
 07/25/26 GRIDWRIGHT            250.0 2026 S CDF conventions
BUS DATA FOLLOWS                             4 ITEMS
   1 SWING  380    1  1  3 1.0500   0.00      0.0       0.0   300.0    12.0  380.00 1.0500   120.0   -60.0  0.0000  0.0000    0
   2 TOWN   380    1  1  0 1.0100  -3.20    120.0      40.0     0.0     0.0  380.00 0.0000     0.0     0.0  0.0000  0.0000    0
   3 PLANT  132    1  1  2 1.0200  -1.10      0.0       0.0    50.0     8.0  132.00 1.0200    30.0   -10.0  0.0000  0.0000    0
   4 WORKS  132    1  1  0 0.9950  -5.40     60.0      25.0     0.0     0.0  132.00 0.0000     0.0     0.0  0.0200  0.1500    0
-999
BRANCH DATA FOLLOWS                          4 ITEMS
   1    2  1 1  1 0  0.010000   0.100000  0.020000150   170   190      0 0
   2    3  1 1  1 1  0.002000   0.050000  0.000000                     0 0   1.025    0.00
   3    4  1 1  1 4  0.004000   0.080000  0.000000200                  0 0   1.000   -3.50
   1    4  1 1  1 0  0.020000   0.200000  0.000000                     0 0
-999
LOSS ZONES FOLLOWS                     1 ITEMS
  1 CONVENT   
-99
INTERCHANGE DATA FOLLOWS                0 ITEMS
-9
TIE LINES FOLLOWS                     0 ITEMS
-999
END OF DATA
